LTspice 24.0.9 for Windows
Circuit: * C:\Users\Filippo\Documents\PhD\MATLAB\Course\MATLABCircuitOptimizer\Buck.asc
Start Time: Sat Apr 13 13:58:34 2024
solver = Normal
Maximum thread count: 4
tnom = 27
temp = 27
method = modified trap
Instance "m1": Length shorter than recommended for a level 1 MOSFET.
Instance "m2": Length shorter than recommended for a level 1 MOSFET.
Direct Newton iteration for .op point succeeded.
Heightened Def Con from 0.000510281 to 0.000510282

pin: AVG(-v(in)*i(vin))=61.2905 FROM 9.70967e-07 TO 2.09881e-05
pout: AVG(v(out)*i(rload))=59.7841 FROM 9.70967e-07 TO 2.09881e-05
eff: pout/pin=0.975421

Total elapsed time: 5.351 seconds.

