Circuit: * C:\Users\franz\Desktop\MATLABCircuitOptimizer-main\Buck.asc

Direct Newton iteration for .op point succeeded.

pin: AVG(-v(in)*i(vin))=0.0307166 FROM 0.000400003 TO 0.000550003
pout: AVG(v(out)*i(rload))=1.58417e-017 FROM 0.000400003 TO 0.000550003
eff: pout/pin=5.15738e-016


Date: Wed Apr 03 20:36:46 2024
Total elapsed time: 0.208 seconds.

tnom = 27
temp = 27
method = modified trap
totiter = 103238
traniter = 103233
tranpoints = 32820
accept = 26336
rejected = 6484
matrix size = 12
fillins = 0
solver = Normal
Matrix Compiler1: 768 bytes object code size  0.2/0.1/[0.1]
Matrix Compiler2: off  [0.1]/0.1/0.1

