LTspice 24.0.9 for Windows
Circuit: * C:\Users\Filippo\Documents\PhD\MATLAB\Course\MATLABCircuitOptimizer\Buck.asc
Start Time: Fri Mar 29 16:03:57 2024
solver = Normal
Maximum thread count: 4
tnom = 27
temp = 27
method = modified trap
Instance "m1": Length shorter than recommended for a level 1 MOSFET.
Instance "m2": Length shorter than recommended for a level 1 MOSFET.
Direct Newton iteration for .op point succeeded.

pin: AVG(-v(in)*i(vin))=12.3244 FROM 0.000400003 TO 0.000550003
pout: AVG(v(out)*i(rload))=11.69 FROM 0.000400003 TO 0.000550003
eff: pout/pin=0.948519

Total elapsed time: 0.710 seconds.

