Circuit: * C:\Users\franz\Desktop\MATLABCircuitOptimizer-main\Buck.asc

Direct Newton iteration for .op point succeeded.

pin: AVG(-v(in)*i(vin))=12.2831 FROM 0.000400003 TO 0.000550003
pout: AVG(v(out)*i(rload))=11.878 FROM 0.000400003 TO 0.000550003
eff: pout/pin=0.96702


Date: Wed Apr 03 19:57:54 2024
Total elapsed time: 0.287 seconds.

tnom = 27
temp = 27
method = modified trap
totiter = 121216
traniter = 121210
tranpoints = 36685
accept = 29093
rejected = 7592
matrix size = 12
fillins = 0
solver = Normal
Matrix Compiler1: 768 bytes object code size  0.1/0.1/[0.1]
Matrix Compiler2: off  [0.1]/0.1/0.1

