LTspice 24.0.9 for Windows
Circuit: * C:\Users\Filippo\Documents\PhD\MATLAB\Course\MATLABCircuitOptimizer\Buck.asc
Start Time: Fri Apr 12 17:17:13 2024
solver = Normal
Maximum thread count: 4
tnom = 27
temp = 27
method = modified trap
gmin = 1e-10
abstol = 1e-10
reltol = 0.003
Instance "m1": Length shorter than recommended for a level 1 MOSFET.
Instance "m2": Length shorter than recommended for a level 1 MOSFET.
Direct Newton iteration for .op point succeeded.

pin: AVG(-v(in)*i(vin) -v(vcc)*i(vcc))=155.817 FROM 0 TO 0.0001
pout: AVG(v(out)*i(rload))=142.974 FROM 0 TO 0.0001
eff: pout/pin=0.917576

Total elapsed time: 10.962 seconds.

